%chk=C:\Users\josh_\Documents\GitHub\HenrysLaw\Presentation\Final\MoleculeFiles\Toluene.chk
# hf/3-21g geom=connectivity

Title Card Required

0 1
 C                  2.43997600    0.00000076    0.00000000
 H                  2.79664301   -0.50440171   -0.87365141
 H                  2.79664301   -0.50440171    0.87365141
 H                  2.79664198    1.00880668    0.00000000
 C                  0.89997600   -0.00000029    0.00000000
 C                  0.19927600   -0.00000059   -1.21364800
 C                  0.19927600   -0.00000059    1.21364800
 C                 -1.20212400   -0.00000024   -1.21364800
 H                  0.73427600   -0.00000074   -2.14029518
 C                 -1.20212400   -0.00000024    1.21364800
 H                  0.73427600   -0.00000074    2.14029518
 C                 -1.90282400    0.00000081    0.00000000
 H                 -1.73712400   -0.00000076   -2.14029518
 H                 -1.73712400   -0.00000076    2.14029518
 H                 -2.97282400    0.00000259    0.00000000

 1 2 1.0 3 1.0 4 1.0 5 1.0
 2
 3
 4
 5 6 1.5 7 1.5
 6 8 1.5 9 1.0
 7 10 1.5 11 1.0
 8 12 1.5 13 1.0
 9
 10 12 1.5 14 1.0
 11
 12 15 1.0
 13
 14
 15

